feeders/13 Node Ref Feeder Laid Out CVR CRC2/main.glm
clock {
timezone PST+8PDT;
stoptime '2000-01-02 00:00:00';
starttime '2000-01-01 00:00:00';
};

#include "light_schedule.glm";
#include "water_and_setpoint_schedule.glm";
#set minimum_timestep=60;
#set profiler=1;
#set relax_naming_rules=1;
module generators;
module tape;
module climate;
module residential {
implicit_enduses NONE;
};

module powerflow {
solver_method FBS;
NR_iteration_limit 50;
};

object climate {
name "Climate";
interpolate QUADRATIC;
tmyfile "climate.tmy2";
};

object overhead_line_conductor {
resistance 0.185900;
name overhead_line_conductor_6010;
geometric_mean_radius 0.031300;
};

object overhead_line_conductor {
resistance 0.592000;
name overhead_line_conductor_6020;
geometric_mean_radius 0.00814;
};

object overhead_line_conductor {
resistance 1.120000;
name overhead_line_conductor_6030;
geometric_mean_radius 0.004460;
};

object underground_line_conductor {
name underground_line_conductor_6060;
conductor_resistance 0.410000;
shield_resistance 0.000000;
neutral_gmr 0.0020800;
outer_diameter 1.290000;
neutral_strands 13.000000;
neutral_resistance 14.87200;
neutral_diameter 0.0640837;
conductor_diameter 0.567000;
shield_gmr 0.000000;
conductor_gmr 0.017100;
};

object underground_line_conductor {
name underground_line_conductor_6070;
conductor_resistance 0.970000;
shield_resistance 0.000000;
neutral_gmr 0.011100;
outer_diameter 1.060000;
neutral_strands 6.000000;
neutral_resistance 0.970000;
neutral_diameter 0.0640837;
conductor_diameter 0.368000;
shield_gmr 0.000000;
conductor_gmr 0.011100;
};

object line_spacing {
distance_BC 7.0;
name line_spacing_500601;
distance_CN 5.0;
distance_AN 4.272002;
distance_AB 2.5;
distance_BN 5.656854;
distance_AC 4.5;
};

object line_spacing {
distance_BC 7.0;
name line_spacing_500602;
distance_CN 5.656854;
distance_AN 4.272002;
distance_AB 4.5;
distance_AC 2.5;
distance_BN 5.0;
};

object line_spacing {
distance_AN 0.0;
name line_spacing_505603;
distance_CN 5.656854;
distance_BC 7.0;
distance_AB 0.0;
distance_AC 0.0;
distance_BN 5.0;
};

object line_spacing {
distance_AN 5.656854;
name line_spacing_505604;
distance_CN 5.0;
distance_BC 0.0;
distance_AB 0.0;
distance_AC 7.0;
distance_BN 0.0;
};

object line_spacing {
distance_AN 0.0;
name line_spacing_510;
distance_CN 5.0;
distance_BC 0.0;
distance_AB 0.0;
distance_AC 0.0;
distance_BN 0.0;
};

object line_configuration {
name line_configuration_601;
spacing line_spacing_500601;
conductor_N overhead_line_conductor_6020;
conductor_A overhead_line_conductor_6010;
conductor_C overhead_line_conductor_6010;
conductor_B overhead_line_conductor_6010;
};

object line_configuration {
name line_configuration_602;
spacing line_spacing_500602;
conductor_N overhead_line_conductor_6020;
conductor_A overhead_line_conductor_6020;
conductor_C overhead_line_conductor_6020;
conductor_B overhead_line_conductor_6020;
};

object line_configuration {
name line_configuration_603;
spacing line_spacing_505603;
conductor_N overhead_line_conductor_6030;
conductor_C overhead_line_conductor_6030;
conductor_B overhead_line_conductor_6030;
};

object line_configuration {
name line_configuration_604;
spacing line_spacing_505604;
conductor_N overhead_line_conductor_6030;
conductor_A overhead_line_conductor_6030;
conductor_C overhead_line_conductor_6030;
};

object line_configuration {
conductor_C overhead_line_conductor_6030;
conductor_N overhead_line_conductor_6030;
spacing line_spacing_510;
name line_configuration_605;
};

object line_spacing {
distance_AN 0.000000;
name line_spacing_515;
distance_CN 0.000000;
distance_BC 0.500000;
distance_AB 0.500000;
distance_AC 1.000000;
distance_BN 0.000000;
};

object line_spacing {
distance_AN 0.083333;
name line_spacing_520;
distance_CN 0.000000;
distance_BC 0.000000;
distance_AB 0.000000;
distance_AC 0.000000;
distance_BN 0.000000;
};

object line_configuration {
name line_configuration_606;
spacing line_spacing_515;
conductor_A underground_line_conductor_6060;
conductor_C underground_line_conductor_6060;
conductor_B underground_line_conductor_6060;
};

object line_configuration {
spacing line_spacing_520;
conductor_N underground_line_conductor_6070;
conductor_A underground_line_conductor_6070;
name line_configuration_607;
};

object transformer_configuration {
power_rating 500;
primary_voltage 4160;
install_type PADMOUNT;
secondary_voltage 480;
connect_type WYE_WYE;
resistance 0.011;
reactance 0.02;
name transformer_configuration_400;
};

object regulator_configuration {
power_transducer_ratio 20;
connect_type 1;
Type A;
band_width 40;
compensator_x_setting_A 9.0;
time_delay 30.0;
compensator_x_setting_C 9.0;
compensator_x_setting_B 9.0;
regulation 0.10;
compensator_r_setting_C 3.0;
compensator_r_setting_B 3.0;
compensator_r_setting_A 3.0;
band_center 2401;
PT_phase ABC;
lower_taps 16;
Control REMOTE_NODE;
raise_taps 16;
name regulator_configuration_6506321;
current_transducer_ratio 700;
tap_pos_B 1;
tap_pos_C 1;
CT_phase ABC;
tap_pos_A 1;
};

object transformer_configuration {
name trans_config_to_feeder;
primary_voltage 33000;
install_type PADMOUNT;
secondary_voltage 2401.777;
connect_type WYE_WYE;
impedance 0.00033+0.0022j;
power_rating 5 MVA;
};

object node {
phases ABCN;
nominal_voltage 33000;
name network_node;
bustype SWING;
};

object transformer {
phases ABCN;
from network_node;
name substation_transformer;
to 650;
configuration trans_config_to_feeder;
groupid Distribution_Trans;
};

object overhead_line {
phases BCN;
from 632;
name 632-645;
to 645;
length 500;
configuration line_configuration_603;
groupid Distribution_Line;
};

object overhead_line {
phases BCN;
from 645;
name 645-646;
to 646;
length 300;
configuration line_configuration_603;
groupid Distribution_Line;
};

object overhead_line {
phases ABCN;
from 630;
name 630-632;
to 632;
length 2000;
configuration line_configuration_601;
groupid Distribution_Line;
};

object overhead_line {
phases ABCN;
from 632;
name 632-6321;
to 6321;
length 500;
configuration line_configuration_601;
groupid Distribution_Line;
};

object overhead_line {
phases ABCN;
from 6321;
name 6321-671;
to 671;
length 1500;
configuration line_configuration_601;
groupid Distribution_Line;
};

object overhead_line {
phases ABCN;
from 671;
name 671-680;
to 680;
length 1000;
configuration line_configuration_601;
groupid Distribution_Line;
};

object overhead_line {
phases ACN;
from 671;
name 671-684;
to 684;
length 300;
configuration line_configuration_604;
groupid Distribution_Line;
};

object overhead_line {
phases CN;
from 684;
name 684-611;
to 611;
length 300;
configuration line_configuration_605;
groupid Distribution_Line;
};

object underground_line {
phases AN;
from 684;
name 684-652;
to 652;
length 800;
configuration line_configuration_607;
groupid Distribution_Line;
};

object underground_line {
phases ABC;
from 692;
name 692-675;
to 675;
length 2500;
configuration line_configuration_606;
groupid Distribution_Line;
};

object overhead_line {
phases ABCN;
from 632;
name 632-633;
to 633;
length 500;
configuration line_configuration_602;
groupid Distribution_Line;
};

object node {
phases ABCN;
name 633;
voltage_B -1200.8886-2080.000j;
voltage_C -1200.8886+2080.000j;
voltage_A 2401.7771;
nominal_voltage 2401.7771;
};

object node {
phases ABCN;
name 630;
voltage_B -1200.8886-2080.000j;
voltage_C -1200.8886+2080.000j;
voltage_A 2401.7771+0j;
nominal_voltage 2401.7771;
};

object node {
phases ABCN;
name 632;
voltage_B -1200.8886-2080.000j;
voltage_C -1200.8886+2080.000j;
voltage_A 2401.7771;
nominal_voltage 2401.7771;
};

object node {
phases ABCN;
name 650;
voltage_B -1200.8886-2080.000j;
voltage_C -1200.8886+2080.000j;
voltage_A 2401.7771;
nominal_voltage 2401.7771;
};

object node {
phases ABCN;
name 680;
voltage_B -1200.8886-2080.000j;
voltage_C -1200.8886+2080.000j;
voltage_A 2401.7771;
nominal_voltage 2401.7771;
};

object node {
phases ACN;
name 684;
voltage_B -1200.8886-2080.000j;
voltage_C -1200.8886+2080.000j;
voltage_A 2401.7771;
nominal_voltage 2401.7771;
};

object node {
phases ABCN;
name 634;
voltage_B -240.000-415.6922j;
voltage_C -240.000+415.6922j;
voltage_A 480.000+0j;
nominal_voltage 480.000;
};

object node {
phases BCN;
nominal_voltage 2401.7771;
name 645;
};

object node {
phases BC;
nominal_voltage 2401.7771;
name 646;
};

object node {
phases AN;
nominal_voltage 2401.7771;
name 652;
};

object node {
phases ABC;
nominal_voltage 2401.7771;
name 671;
};

object node {
phases ABC;
nominal_voltage 2401.7771;
name 675;
};

object node {
phases ABC;
nominal_voltage 2401.7771;
name 692;
};

object node {
phases CN;
nominal_voltage 2401.7771;
name 611;
};

object node {
phases ABC;
nominal_voltage 2401.7771;
name 6711;
parent 671;
};

object node {
phases ABCN;
nominal_voltage 2401.7771;
name 6321;
};

object switch {
status CLOSED;
phases ABCN;
from 671;
name 671-692;
to 692;
};

object transformer {
phases ABCN;
from 633;
name 633-634;
to 634;
configuration transformer_configuration_400;
groupid Distribution_Trans;
};

object regulator {
phases ABC;
from 650;
name Reg1;
to 630;
sense_node 671;
configuration regulator_configuration_6506321;
};

object capacitor {
control VOLT;
phases ABCN;
name CAP1;
parent 675;
capacitor_B 0.10 MVAr;
capacitor_C 0.10 MVAr;
capacitor_A 0.10 MVAr;
time_delay 300.0;
pt_phase ABCN;
nominal_voltage 2401.7771;
voltage_set_low 2340.0;
switchC CLOSED;
control_level INDIVIDUAL;
switchA CLOSED;
switchB CLOSED;
phases_connected ABCN;
dwell_time 0.0;
voltage_set_high 2350.0;
};

object capacitor {
control VOLT;
phases ABCN;
name CAP2;
parent 675;
capacitor_B 0.05 MVAr;
capacitor_C 0.05 MVAr;
capacitor_A 0.05 MVAr;
time_delay 300.0;
pt_phase ABCN;
nominal_voltage 2401.7771;
voltage_set_low 2150.0;
switchC CLOSED;
control_level INDIVIDUAL;
switchA CLOSED;
switchB CLOSED;
phases_connected ABCN;
dwell_time 0.0;
voltage_set_high 2300.0;
};

object triplex_line_configuration {
diameter 0.368;
insulation_thickness 0.08;
conductor_1 trip_line_configtriplex_line_conductor69;
conductor_2 trip_line_configtriplex_line_conductor70;
conductor_N trip_line_configtriplex_line_conductor71;
name trip_line_config;
};

object triplex_line_conductor {
resistance 0.97;
name trip_line_configtriplex_line_conductor69;
geometric_mean_radius 0.01111;
};

object triplex_line_conductor {
resistance 0.97;
name trip_line_configtriplex_line_conductor70;
geometric_mean_radius 0.01111;
};

object triplex_line_conductor {
resistance 0.97;
name trip_line_configtriplex_line_conductor71;
geometric_mean_radius 0.01111;
};

object transformer {
phases BS;
from 645;
name CTTF_B_645;
to tn_B_645;
configuration CTTF_B_645transformer_configuration73;
groupid Distribution_Trans;
};

object transformer_configuration {
shunt_impedance 10000+10000j;
primary_voltage 2401.777;
install_type POLETOP;
secondary_voltage 120;
connect_type SINGLE_PHASE_CENTER_TAPPED;
impedance 0.00033+0.0022j;
powerB_rating 110 kVA;
name CTTF_B_645transformer_configuration73;
};

object triplex_meter {
phases BS;
nominal_voltage 120;
name tn_B_645;
};

object triplex_line {
phases BS;
from tn_B_645;
name tl_B_1_645;
to tm_B_1_645;
length 16.35;
configuration trip_line_config;
groupid Triplex_Line;
};

object triplex_meter {
phases BS;
nominal_voltage 120;
name tm_B_1_645;
groupid Triplex_Meter;
};

object house {
schedule_skew 722;
name house1B_tm_B_1_645;
parent tm_B_1_645;
floor_area 1716;
cooling_COP 2.5;
cooling_system_type ELECTRIC;
heating_setpoint heating3*1;
cooling_setpoint cooling7*1;
air_temperature 70;
thermal_integrity_level 5;
mass_temperature 70;
heating_system_type GAS;
};

object ZIPload {
schedule_skew 722;
parent house1B_tm_B_1_645;
power_fraction 0.400000;
current_fraction 0.300000;
base_power LIGHTS*0.97;
impedance_pf 1.000;
current_pf 1.000;
power_pf 1.000;
impedance_fraction 0.300000;
heatgain_fraction 0.9;
name house1B_tm_B_1_645ZIPload78;
};

object triplex_line {
phases BS;
from tn_B_645;
name tl_B_2_645;
to tm_B_2_645;
length 13.90;
configuration trip_line_config;
groupid Triplex_Line;
};

object triplex_meter {
phases BS;
nominal_voltage 120;
name tm_B_2_645;
groupid Triplex_Meter;
};

object house {
schedule_skew 2406;
name house2B_tm_B_2_645;
parent tm_B_2_645;
floor_area 2339;
cooling_COP 2.6;
cooling_system_type ELECTRIC;
heating_setpoint heating4*1;
cooling_setpoint cooling3*1;
air_temperature 70;
thermal_integrity_level 6;
heating_COP 3.0;
mass_temperature 70;
heating_system_type HEAT_PUMP;
};

object ZIPload {
schedule_skew 2406;
parent house2B_tm_B_2_645;
power_fraction 0.400000;
current_fraction 0.300000;
base_power LIGHTS*1.29;
impedance_pf 1.000;
current_pf 1.000;
power_pf 1.000;
impedance_fraction 0.300000;
heatgain_fraction 0.9;
name house2B_tm_B_2_645ZIPload82;
};

object waterheater {
schedule_skew 2406;
tank_volume 50;
temperature 135;
parent house2B_tm_B_2_645;
heating_element_capacity 4.8 kW;
thermostat_deadband 3.9;
location INSIDE;
demand water14*1;
tank_setpoint 133.7;
tank_UA 3.7;
name house2B_tm_B_2_645waterheater83;
};

object triplex_line {
phases BS;
from tn_B_645;
name tl_B_3_645;
to tm_B_3_645;
length 17.80;
configuration trip_line_config;
groupid Triplex_Line;
};

object triplex_meter {
phases BS;
nominal_voltage 120;
name tm_B_3_645;
groupid Triplex_Meter;
};

object house {
schedule_skew 1870;
name house3B_tm_B_3_645;
parent tm_B_3_645;
floor_area 2236;
cooling_COP 3.2;
cooling_system_type ELECTRIC;
heating_setpoint heating2*1;
cooling_setpoint cooling7*1;
air_temperature 70;
thermal_integrity_level 4;
mass_temperature 70;
heating_system_type GAS;
};

object ZIPload {
schedule_skew 1870;
parent house3B_tm_B_3_645;
power_fraction 0.400000;
current_fraction 0.300000;
base_power LIGHTS*0.99;
impedance_pf 1.000;
current_pf 1.000;
power_pf 1.000;
impedance_fraction 0.300000;
heatgain_fraction 0.9;
name house3B_tm_B_3_645ZIPload87;
};

object triplex_line {
phases BS;
from tn_B_645;
name tl_B_4_645;
to tm_B_4_645;
length 15.52;
configuration trip_line_config;
groupid Triplex_Line;
};

object triplex_meter {
phases BS;
nominal_voltage 120;
name tm_B_4_645;
groupid Triplex_Meter;
};

object house {
schedule_skew 2138;
name house4B_tm_B_4_645;
parent tm_B_4_645;
floor_area 2691;
cooling_COP 3.7;
cooling_system_type ELECTRIC;
heating_setpoint heating7*1;
cooling_setpoint cooling4*1;
air_temperature 70;
thermal_integrity_level 5;
heating_COP 3.5;
mass_temperature 70;
heating_system_type HEAT_PUMP;
};

object ZIPload {
schedule_skew 2138;
parent house4B_tm_B_4_645;
power_fraction 0.400000;
current_fraction 0.300000;
base_power LIGHTS*1.51;
impedance_pf 1.000;
current_pf 1.000;
power_pf 1.000;
impedance_fraction 0.300000;
heatgain_fraction 0.9;
name house4B_tm_B_4_645ZIPload91;
};

object waterheater {
schedule_skew 2138;
tank_volume 50;
temperature 135;
parent house4B_tm_B_4_645;
heating_element_capacity 4.4 kW;
thermostat_deadband 4.8;
location INSIDE;
demand water11*1;
tank_setpoint 135.3;
tank_UA 3.3;
name house4B_tm_B_4_645waterheater92;
};

object triplex_line {
phases BS;
from tn_B_645;
name tl_B_5_645;
to tm_B_5_645;
length 14.44;
configuration trip_line_config;
groupid Triplex_Line;
};

object triplex_meter {
phases BS;
nominal_voltage 120;
name tm_B_5_645;
groupid Triplex_Meter;
};

object house {
schedule_skew 185;
name house5B_tm_B_5_645;
parent tm_B_5_645;
floor_area 2059;
cooling_COP 3.4;
cooling_system_type ELECTRIC;
heating_setpoint heating4*1;
cooling_setpoint cooling2*1;
air_temperature 70;
thermal_integrity_level 5;
heating_COP 3.0;
mass_temperature 70;
heating_system_type HEAT_PUMP;
};

object ZIPload {
schedule_skew 185;
parent house5B_tm_B_5_645;
power_fraction 0.400000;
current_fraction 0.300000;
base_power LIGHTS*0.80;
impedance_pf 1.000;
current_pf 1.000;
power_pf 1.000;
impedance_fraction 0.300000;
heatgain_fraction 0.9;
name house5B_tm_B_5_645ZIPload96;
};

object waterheater {
schedule_skew 185;
tank_volume 50;
temperature 135;
parent house5B_tm_B_5_645;
heating_element_capacity 4.1 kW;
thermostat_deadband 4.8;
location INSIDE;
demand water3*1;
tank_setpoint 137.2;
tank_UA 3.1;
name house5B_tm_B_5_645waterheater97;
};

object triplex_line {
phases BS;
from tn_B_645;
name tl_B_6_645;
to tm_B_6_645;
length 19.10;
configuration trip_line_config;
groupid Triplex_Line;
};

object triplex_meter {
phases BS;
nominal_voltage 120;
name tm_B_6_645;
groupid Triplex_Meter;
};

object house {
schedule_skew 2754;
name house6B_tm_B_6_645;
parent tm_B_6_645;
floor_area 1936;
cooling_COP 2.7;
cooling_system_type ELECTRIC;
heating_setpoint heating5*1;
cooling_setpoint cooling1*1;
air_temperature 70;
thermal_integrity_level 5;
heating_COP 2.7;
mass_temperature 70;
heating_system_type HEAT_PUMP;
};

object ZIPload {
schedule_skew 2754;
parent house6B_tm_B_6_645;
power_fraction 0.400000;
current_fraction 0.300000;
base_power LIGHTS*1.11;
impedance_pf 1.000;
current_pf 1.000;
power_pf 1.000;
impedance_fraction 0.300000;
heatgain_fraction 0.9;
name house6B_tm_B_6_645ZIPload101;
};

object waterheater {
schedule_skew 2754;
tank_volume 50;
temperature 135;
parent house6B_tm_B_6_645;
heating_element_capacity 4.6 kW;
thermostat_deadband 4.9;
location INSIDE;
demand water20*1;
tank_setpoint 140.0;
tank_UA 3.3;
name house6B_tm_B_6_645waterheater102;
};

object triplex_line {
phases BS;
from tn_B_645;
name tl_B_7_645;
to tm_B_7_645;
length 19.90;
configuration trip_line_config;
groupid Triplex_Line;
};

object triplex_meter {
phases BS;
nominal_voltage 120;
name tm_B_7_645;
groupid Triplex_Meter;
};

object house {
schedule_skew 238;
name house7B_tm_B_7_645;
parent tm_B_7_645;
floor_area 1738;
cooling_COP 2.9;
cooling_system_type ELECTRIC;
heating_setpoint heating8*1;
cooling_setpoint cooling1*1;
air_temperature 70;
thermal_integrity_level 4;
heating_COP 2.7;
mass_temperature 70;
heating_system_type HEAT_PUMP;
};

object ZIPload {
schedule_skew 238;
parent house7B_tm_B_7_645;
power_fraction 0.400000;
current_fraction 0.300000;
base_power LIGHTS*0.76;
impedance_pf 1.000;
current_pf 1.000;
power_pf 1.000;
impedance_fraction 0.300000;
heatgain_fraction 0.9;
name house7B_tm_B_7_645ZIPload106;
};

object waterheater {
schedule_skew 238;
tank_volume 50;
temperature 135;
parent house7B_tm_B_7_645;
heating_element_capacity 4.5 kW;
thermostat_deadband 5.7;
location INSIDE;
demand water19*1;
tank_setpoint 128.8;
tank_UA 2.9;
name house7B_tm_B_7_645waterheater107;
};

object triplex_line {
phases BS;
from tn_B_645;
name tl_B_8_645;
to tm_B_8_645;
length 19.22;
configuration trip_line_config;
groupid Triplex_Line;
};

object triplex_meter {
phases BS;
nominal_voltage 120;
name tm_B_8_645;
groupid Triplex_Meter;
};

object house {
schedule_skew 534;
name house8B_tm_B_8_645;
parent tm_B_8_645;
floor_area 2481;
cooling_COP 3.8;
cooling_system_type ELECTRIC;
heating_setpoint heating1*1;
cooling_setpoint cooling3*1;
air_temperature 70;
thermal_integrity_level 4;
mass_temperature 70;
heating_system_type GAS;
};

object ZIPload {
schedule_skew 534;
parent house8B_tm_B_8_645;
power_fraction 0.400000;
current_fraction 0.300000;
base_power LIGHTS*1.02;
impedance_pf 1.000;
current_pf 1.000;
power_pf 1.000;
impedance_fraction 0.300000;
heatgain_fraction 0.9;
name house8B_tm_B_8_645ZIPload111;
};

object triplex_line {
phases BS;
from tn_B_645;
name tl_B_9_645;
to tm_B_9_645;
length 17.23;
configuration trip_line_config;
groupid Triplex_Line;
};

object triplex_meter {
phases BS;
nominal_voltage 120;
name tm_B_9_645;
groupid Triplex_Meter;
};

object house {
schedule_skew -437;
name house9B_tm_B_9_645;
parent tm_B_9_645;
floor_area 1909;
cooling_COP 3.1;
cooling_system_type ELECTRIC;
heating_setpoint heating8*1;
cooling_setpoint cooling1*1;
air_temperature 70;
thermal_integrity_level 3;
mass_temperature 70;
heating_system_type GAS;
};

object ZIPload {
schedule_skew -437;
parent house9B_tm_B_9_645;
power_fraction 0.400000;
current_fraction 0.300000;
base_power LIGHTS*0.87;
impedance_pf 1.000;
current_pf 1.000;
power_pf 1.000;
impedance_fraction 0.300000;
heatgain_fraction 0.9;
name house9B_tm_B_9_645ZIPload115;
};

object triplex_line {
phases BS;
from tn_B_645;
name tl_B_10_645;
to tm_B_10_645;
length 11.23;
configuration trip_line_config;
groupid Triplex_Line;
};

object triplex_meter {
phases BS;
nominal_voltage 120;
name tm_B_10_645;
groupid Triplex_Meter;
};

object house {
schedule_skew -395;
name house10B_tm_B_10_645;
parent tm_B_10_645;
floor_area 2174;
cooling_COP 2.8;
cooling_system_type ELECTRIC;
heating_setpoint heating8*1;
cooling_setpoint cooling6*1;
air_temperature 70;
thermal_integrity_level 3;
heating_COP 2.5;
mass_temperature 70;
heating_system_type HEAT_PUMP;
};

object ZIPload {
schedule_skew -395;
parent house10B_tm_B_10_645;
power_fraction 0.400000;
current_fraction 0.300000;
base_power LIGHTS*1.34;
impedance_pf 1.000;
current_pf 1.000;
power_pf 1.000;
impedance_fraction 0.300000;
heatgain_fraction 0.9;
name house10B_tm_B_10_645ZIPload119;
};

object waterheater {
schedule_skew -395;
tank_volume 50;
temperature 135;
parent house10B_tm_B_10_645;
heating_element_capacity 4.7 kW;
thermostat_deadband 2.1;
location INSIDE;
demand water11*1;
tank_setpoint 130.8;
tank_UA 2.1;
name house10B_tm_B_10_645waterheater120;
};

object triplex_line {
phases BS;
from tn_B_645;
name tl_B_11_645;
to tm_B_11_645;
length 10.89;
configuration trip_line_config;
groupid Triplex_Line;
};

object triplex_meter {
phases BS;
nominal_voltage 120;
name tm_B_11_645;
groupid Triplex_Meter;
};

object house {
schedule_skew 577;
name house11B_tm_B_11_645;
parent tm_B_11_645;
floor_area 2288;
cooling_COP 2.9;
cooling_system_type ELECTRIC;
heating_setpoint heating8*1;
cooling_setpoint cooling1*1;
air_temperature 70;
thermal_integrity_level 5;
heating_COP 2.1;
mass_temperature 70;
heating_system_type HEAT_PUMP;
};

object ZIPload {
schedule_skew 577;
parent house11B_tm_B_11_645;
power_fraction 0.400000;
current_fraction 0.300000;
base_power LIGHTS*1.22;
impedance_pf 1.000;
current_pf 1.000;
power_pf 1.000;
impedance_fraction 0.300000;
heatgain_fraction 0.9;
name house11B_tm_B_11_645ZIPload124;
};

object waterheater {
schedule_skew 577;
tank_volume 50;
temperature 135;
parent house11B_tm_B_11_645;
heating_element_capacity 4.8 kW;
thermostat_deadband 3.0;
location INSIDE;
demand water12*1;
tank_setpoint 120.8;
tank_UA 3.4;
name house11B_tm_B_11_645waterheater125;
};

object triplex_line {
phases BS;
from tn_B_645;
name tl_B_12_645;
to tm_B_12_645;
length 13.36;
configuration trip_line_config;
groupid Triplex_Line;
};

object triplex_meter {
phases BS;
nominal_voltage 120;
name tm_B_12_645;
groupid Triplex_Meter;
};

object house {
schedule_skew 2037;
name house12B_tm_B_12_645;
parent tm_B_12_645;
floor_area 2522;
cooling_COP 3.3;
cooling_system_type ELECTRIC;
heating_setpoint heating5*1;
cooling_setpoint cooling8*1;
air_temperature 70;
thermal_integrity_level 6;
heating_COP 2.1;
mass_temperature 70;
heating_system_type HEAT_PUMP;
};

object ZIPload {
schedule_skew 2037;
parent house12B_tm_B_12_645;
power_fraction 0.400000;
current_fraction 0.300000;
base_power LIGHTS*1.65;
impedance_pf 1.000;
current_pf 1.000;
power_pf 1.000;
impedance_fraction 0.300000;
heatgain_fraction 0.9;
name house12B_tm_B_12_645ZIPload129;
};

object waterheater {
schedule_skew 2037;
tank_volume 50;
temperature 135;
parent house12B_tm_B_12_645;
heating_element_capacity 5.1 kW;
thermostat_deadband 3.8;
location INSIDE;
demand water12*1;
tank_setpoint 121.0;
tank_UA 3.0;
name house12B_tm_B_12_645waterheater130;
};

object triplex_line {
phases BS;
from tn_B_645;
name tl_B_13_645;
to tm_B_13_645;
length 10.32;
configuration trip_line_config;
groupid Triplex_Line;
};

object triplex_meter {
phases BS;
nominal_voltage 120;
name tm_B_13_645;
groupid Triplex_Meter;
};

object house {
schedule_skew -1566;
name house13B_tm_B_13_645;
parent tm_B_13_645;
floor_area 1955;
cooling_COP 3.6;
cooling_system_type ELECTRIC;
heating_setpoint heating4*1;
cooling_setpoint cooling6*1;
air_temperature 70;
thermal_integrity_level 6;
mass_temperature 70;
heating_system_type GAS;
};

object ZIPload {
schedule_skew -1566;
parent house13B_tm_B_13_645;
power_fraction 0.400000;
current_fraction 0.300000;
base_power LIGHTS*1.07;
impedance_pf 1.000;
current_pf 1.000;
power_pf 1.000;
impedance_fraction 0.300000;
heatgain_fraction 0.9;
name house13B_tm_B_13_645ZIPload134;
};

object triplex_line {
phases BS;
from tn_B_645;
name tl_B_14_645;
to tm_B_14_645;
length 11.91;
configuration trip_line_config;
groupid Triplex_Line;
};

object triplex_meter {
phases BS;
nominal_voltage 120;
name tm_B_14_645;
groupid Triplex_Meter;
};

object house {
schedule_skew 1100;
name house14B_tm_B_14_645;
parent tm_B_14_645;
floor_area 1876;
cooling_COP 2.6;
cooling_system_type ELECTRIC;
heating_setpoint heating3*1;
cooling_setpoint cooling8*1;
air_temperature 70;
thermal_integrity_level 5;
heating_COP 3.4;
mass_temperature 70;
heating_system_type HEAT_PUMP;
};

object ZIPload {
schedule_skew 1100;
parent house14B_tm_B_14_645;
power_fraction 0.400000;
current_fraction 0.300000;
base_power LIGHTS*0.95;
impedance_pf 1.000;
current_pf 1.000;
power_pf 1.000;
impedance_fraction 0.300000;
heatgain_fraction 0.9;
name house14B_tm_B_14_645ZIPload138;
};

object waterheater {
schedule_skew 1100;
tank_volume 50;
temperature 135;
parent house14B_tm_B_14_645;
heating_element_capacity 4.3 kW;
thermostat_deadband 2.1;
location INSIDE;
demand water16*1;
tank_setpoint 136.3;
tank_UA 2.7;
name house14B_tm_B_14_645waterheater139;
};

object triplex_line {
phases BS;
from tn_B_645;
name tl_B_15_645;
to tm_B_15_645;
length 12.46;
configuration trip_line_config;
groupid Triplex_Line;
};

object triplex_meter {
phases BS;
nominal_voltage 120;
name tm_B_15_645;
groupid Triplex_Meter;
};

object house {
schedule_skew 3355;
name house15B_tm_B_15_645;
parent tm_B_15_645;
floor_area 1806;
cooling_COP 3.9;
cooling_system_type ELECTRIC;
heating_setpoint heating7*1;
cooling_setpoint cooling4*1;
air_temperature 70;
thermal_integrity_level 5;
heating_COP 3.2;
mass_temperature 70;
heating_system_type HEAT_PUMP;
};

object ZIPload {
schedule_skew 3355;
parent house15B_tm_B_15_645;
power_fraction 0.400000;
current_fraction 0.300000;
base_power LIGHTS*1.04;
impedance_pf 1.000;
current_pf 1.000;
power_pf 1.000;
impedance_fraction 0.300000;
heatgain_fraction 0.9;
name house15B_tm_B_15_645ZIPload143;
};

object waterheater {
schedule_skew 3355;
tank_volume 50;
temperature 135;
parent house15B_tm_B_15_645;
heating_element_capacity 4.7 kW;
thermostat_deadband 4.2;
location INSIDE;
demand water1*1;
tank_setpoint 136.3;
tank_UA 3.2;
name house15B_tm_B_15_645waterheater144;
};

object triplex_line {
phases BS;
from tn_B_645;
name tl_B_16_645;
to tm_B_16_645;
length 11.14;
configuration trip_line_config;
groupid Triplex_Line;
};

object triplex_meter {
phases BS;
nominal_voltage 120;
name tm_B_16_645;
groupid Triplex_Meter;
};

object house {
schedule_skew -957;
name house16B_tm_B_16_645;
parent tm_B_16_645;
floor_area 1670;
cooling_COP 3.5;
cooling_system_type ELECTRIC;
heating_setpoint heating8*1;
cooling_setpoint cooling3*1;
air_temperature 70;
thermal_integrity_level 4;
heating_COP 2.6;
mass_temperature 70;
heating_system_type HEAT_PUMP;
};

object ZIPload {
schedule_skew -957;
parent house16B_tm_B_16_645;
power_fraction 0.400000;
current_fraction 0.300000;
base_power LIGHTS*0.82;
impedance_pf 1.000;
current_pf 1.000;
power_pf 1.000;
impedance_fraction 0.300000;
heatgain_fraction 0.9;
name house16B_tm_B_16_645ZIPload148;
};

object waterheater {
schedule_skew -957;
tank_volume 50;
temperature 135;
parent house16B_tm_B_16_645;
heating_element_capacity 4.8 kW;
thermostat_deadband 2.4;
location INSIDE;
demand water20*1;
tank_setpoint 135.6;
tank_UA 2.9;
name house16B_tm_B_16_645waterheater149;
};

object triplex_line {
phases BS;
from tn_B_645;
name tl_B_17_645;
to tm_B_17_645;
length 10.34;
configuration trip_line_config;
groupid Triplex_Line;
};

object triplex_meter {
phases BS;
nominal_voltage 120;
name tm_B_17_645;
groupid Triplex_Meter;
};

object house {
schedule_skew -1391;
name house17B_tm_B_17_645;
parent tm_B_17_645;
floor_area 2042;
cooling_COP 3.7;
cooling_system_type ELECTRIC;
heating_setpoint heating4*1;
cooling_setpoint cooling5*1;
air_temperature 70;
thermal_integrity_level 6;
heating_COP 2.9;
mass_temperature 70;
heating_system_type HEAT_PUMP;
};

object ZIPload {
schedule_skew -1391;
parent house17B_tm_B_17_645;
power_fraction 0.400000;
current_fraction 0.300000;
base_power LIGHTS*1.55;
impedance_pf 1.000;
current_pf 1.000;
power_pf 1.000;
impedance_fraction 0.300000;
heatgain_fraction 0.9;
name house17B_tm_B_17_645ZIPload153;
};

object waterheater {
schedule_skew -1391;
tank_volume 50;
temperature 135;
parent house17B_tm_B_17_645;
heating_element_capacity 4.3 kW;
thermostat_deadband 3.1;
location INSIDE;
demand water11*1;
tank_setpoint 139.0;
tank_UA 3.3;
name house17B_tm_B_17_645waterheater154;
};

object triplex_line {
phases BS;
from tn_B_645;
name tl_B_18_645;
to tm_B_18_645;
length 11.36;
configuration trip_line_config;
groupid Triplex_Line;
};

object triplex_meter {
phases BS;
nominal_voltage 120;
name tm_B_18_645;
groupid Triplex_Meter;
};

object house {
schedule_skew 2214;
name house18B_tm_B_18_645;
parent tm_B_18_645;
floor_area 1913;
cooling_COP 2.5;
cooling_system_type ELECTRIC;
heating_setpoint heating5*1;
cooling_setpoint cooling5*1;
air_temperature 70;
thermal_integrity_level 3;
heating_COP 2.0;
mass_temperature 70;
heating_system_type HEAT_PUMP;
};

object ZIPload {
schedule_skew 2214;
parent house18B_tm_B_18_645;
power_fraction 0.400000;
current_fraction 0.300000;
base_power LIGHTS*1.02;
impedance_pf 1.000;
current_pf 1.000;
power_pf 1.000;
impedance_fraction 0.300000;
heatgain_fraction 0.9;
name house18B_tm_B_18_645ZIPload158;
};

object waterheater {
schedule_skew 2214;
tank_volume 50;
temperature 135;
parent house18B_tm_B_18_645;
heating_element_capacity 4.5 kW;
thermostat_deadband 2.1;
location INSIDE;
demand water19*1;
tank_setpoint 134.8;
tank_UA 2.3;
name house18B_tm_B_18_645waterheater159;
};

object triplex_line {
phases BS;
from tn_B_645;
name tl_B_19_645;
to tm_B_19_645;
length 13.17;
configuration trip_line_config;
groupid Triplex_Line;
};

object triplex_meter {
phases BS;
nominal_voltage 120;
name tm_B_19_645;
groupid Triplex_Meter;
};

object house {
schedule_skew -3393;
name house19B_tm_B_19_645;
parent tm_B_19_645;
floor_area 2055;
cooling_COP 3.1;
cooling_system_type ELECTRIC;
heating_setpoint heating1*1;
cooling_setpoint cooling1*1;
air_temperature 70;
thermal_integrity_level 4;
heating_COP 2.9;
mass_temperature 70;
heating_system_type HEAT_PUMP;
};

object ZIPload {
schedule_skew -3393;
parent house19B_tm_B_19_645;
power_fraction 0.400000;
current_fraction 0.300000;
base_power LIGHTS*1.17;
impedance_pf 1.000;
current_pf 1.000;
power_pf 1.000;
impedance_fraction 0.300000;
heatgain_fraction 0.9;
name house19B_tm_B_19_645ZIPload163;
};

object waterheater {
schedule_skew -3393;
tank_volume 50;
temperature 135;
parent house19B_tm_B_19_645;
heating_element_capacity 4.9 kW;
thermostat_deadband 2.6;
location INSIDE;
demand water7*1;
tank_setpoint 142.0;
tank_UA 2.8;
name house19B_tm_B_19_645waterheater164;
};

object triplex_line {
phases BS;
from tn_B_645;
name tl_B_20_645;
to tm_B_20_645;
length 13.89;
configuration trip_line_config;
groupid Triplex_Line;
};

object triplex_meter {
phases BS;
nominal_voltage 120;
name tm_B_20_645;
groupid Triplex_Meter;
};

object house {
schedule_skew -2173;
name house20B_tm_B_20_645;
parent tm_B_20_645;
floor_area 2397;
cooling_COP 3.3;
cooling_system_type ELECTRIC;
heating_setpoint heating5*1;
cooling_setpoint cooling3*1;
air_temperature 70;
thermal_integrity_level 4;
heating_COP 2.5;
mass_temperature 70;
heating_system_type HEAT_PUMP;
};

object ZIPload {
schedule_skew -2173;
parent house20B_tm_B_20_645;
power_fraction 0.400000;
current_fraction 0.300000;
base_power LIGHTS*1.62;
impedance_pf 1.000;
current_pf 1.000;
power_pf 1.000;
impedance_fraction 0.300000;
heatgain_fraction 0.9;
name house20B_tm_B_20_645ZIPload168;
};

object waterheater {
schedule_skew -2173;
tank_volume 50;
temperature 135;
parent house20B_tm_B_20_645;
heating_element_capacity 4.5 kW;
thermostat_deadband 4.9;
location INSIDE;
demand water8*1;
tank_setpoint 129.9;
tank_UA 3.0;
name house20B_tm_B_20_645waterheater169;
};

object triplex_line {
phases BS;
from tn_B_645;
name tl_B_21_645;
to tm_B_21_645;
length 11.53;
configuration trip_line_config;
groupid Triplex_Line;
};

object triplex_meter {
phases BS;
nominal_voltage 120;
name tm_B_21_645;
groupid Triplex_Meter;
};

object house {
schedule_skew 1965;
name house21B_tm_B_21_645;
parent tm_B_21_645;
floor_area 1707;
cooling_COP 2.9;
cooling_system_type ELECTRIC;
heating_setpoint heating4*1;
cooling_setpoint cooling6*1;
air_temperature 70;
thermal_integrity_level 4;
mass_temperature 70;
heating_system_type GAS;
};

object ZIPload {
schedule_skew 1965;
parent house21B_tm_B_21_645;
power_fraction 0.400000;
current_fraction 0.300000;
base_power LIGHTS*0.75;
impedance_pf 1.000;
current_pf 1.000;
power_pf 1.000;
impedance_fraction 0.300000;
heatgain_fraction 0.9;
name house21B_tm_B_21_645ZIPload173;
};

object triplex_line {
phases BS;
from tn_B_645;
name tl_B_22_645;
to tm_B_22_645;
length 19.61;
configuration trip_line_config;
groupid Triplex_Line;
};

object triplex_meter {
phases BS;
nominal_voltage 120;
name tm_B_22_645;
groupid Triplex_Meter;
};

object house {
schedule_skew 1793;
name house22B_tm_B_22_645;
parent tm_B_22_645;
floor_area 2107;
cooling_COP 3.4;
cooling_system_type ELECTRIC;
heating_setpoint heating8*1;
cooling_setpoint cooling1*1;
air_temperature 70;
thermal_integrity_level 6;
heating_COP 2.1;
mass_temperature 70;
heating_system_type HEAT_PUMP;
};

object ZIPload {
schedule_skew 1793;
parent house22B_tm_B_22_645;
power_fraction 0.400000;
current_fraction 0.300000;
base_power LIGHTS*1.05;
impedance_pf 1.000;
current_pf 1.000;
power_pf 1.000;
impedance_fraction 0.300000;
heatgain_fraction 0.9;
name house22B_tm_B_22_645ZIPload177;
};

object waterheater {
schedule_skew 1793;
tank_volume 50;
temperature 135;
parent house22B_tm_B_22_645;
heating_element_capacity 4.7 kW;
thermostat_deadband 5.7;
location INSIDE;
demand water16*1;
tank_setpoint 142.6;
tank_UA 2.3;
name house22B_tm_B_22_645waterheater178;
};

object transformer {
phases BS;
from 646;
name CTTF_B_646;
to tn_B_646;
configuration CTTF_B_646transformer_configuration180;
groupid Distribution_Trans;
};

object transformer_configuration {
shunt_impedance 10000+10000j;
primary_voltage 2401.777;
install_type POLETOP;
secondary_voltage 120;
connect_type SINGLE_PHASE_CENTER_TAPPED;
impedance 0.00033+0.0022j;
powerB_rating 95 kVA;
name CTTF_B_646transformer_configuration180;
};

object triplex_meter {
phases BS;
nominal_voltage 120;
name tn_B_646;
};

object triplex_line {
phases BS;
from tn_B_646;
name tl_B_1_646;
to tm_B_1_646;
length 18.77;
configuration trip_line_config;
groupid Triplex_Line;
};

object triplex_meter {
phases BS;
nominal_voltage 120;
name tm_B_1_646;
groupid Triplex_Meter;
};

object house {
schedule_skew 739;
name house1B_tm_B_1_646;
parent tm_B_1_646;
floor_area 1836;
cooling_COP 3.8;
cooling_system_type ELECTRIC;
heating_setpoint heating6*1;
cooling_setpoint cooling7*1;
air_temperature 70;
thermal_integrity_level 5;
heating_COP 2.3;
mass_temperature 70;
heating_system_type HEAT_PUMP;
};

object ZIPload {
schedule_skew 739;
parent house1B_tm_B_1_646;
power_fraction 0.400000;
current_fraction 0.300000;
base_power LIGHTS*0.67;
impedance_pf 1.000;
current_pf 1.000;
power_pf 1.000;
impedance_fraction 0.300000;
heatgain_fraction 0.9;
name house1B_tm_B_1_646ZIPload185;
};

object waterheater {
schedule_skew 739;
tank_volume 50;
temperature 135;
parent house1B_tm_B_1_646;
heating_element_capacity 4.2 kW;
thermostat_deadband 4.7;
location INSIDE;
demand water19*1;
tank_setpoint 141.6;
tank_UA 3.2;
name house1B_tm_B_1_646waterheater186;
};

object triplex_line {
phases BS;
from tn_B_646;
name tl_B_2_646;
to tm_B_2_646;
length 13.77;
configuration trip_line_config;
groupid Triplex_Line;
};

object triplex_meter {
phases BS;
nominal_voltage 120;
name tm_B_2_646;
groupid Triplex_Meter;
};

object house {
schedule_skew -3600;
name house2B_tm_B_2_646;
parent tm_B_2_646;
floor_area 2443;
cooling_COP 3.6;
cooling_system_type ELECTRIC;
heating_setpoint heating3*1;
cooling_setpoint cooling6*1;
air_temperature 70;
thermal_integrity_level 3;
mass_temperature 70;
heating_system_type GAS;
};

object ZIPload {
schedule_skew -3600;
parent house2B_tm_B_2_646;
power_fraction 0.400000;
current_fraction 0.300000;
base_power LIGHTS*1.51;
impedance_pf 1.000;
current_pf 1.000;
power_pf 1.000;
impedance_fraction 0.300000;
heatgain_fraction 0.9;
name house2B_tm_B_2_646ZIPload190;
};

object triplex_line {
phases BS;
from tn_B_646;
name tl_B_3_646;
to tm_B_3_646;
length 15.83;
configuration trip_line_config;
groupid Triplex_Line;
};

object triplex_meter {
phases BS;
nominal_voltage 120;
name tm_B_3_646;
groupid Triplex_Meter;
};

object house {
schedule_skew -748;
name house3B_tm_B_3_646;
parent tm_B_3_646;
floor_area 2286;
cooling_COP 3.1;
cooling_system_type ELECTRIC;
heating_setpoint heating4*1;
cooling_setpoint cooling5*1;
air_temperature 70;
thermal_integrity_level 4;
mass_temperature 70;
heating_system_type GAS;
};

object ZIPload {
schedule_skew -748;
parent house3B_tm_B_3_646;
power_fraction 0.400000;
current_fraction 0.300000;
base_power LIGHTS*1.30;
impedance_pf 1.000;
current_pf 1.000;
power_pf 1.000;
impedance_fraction 0.300000;
heatgain_fraction 0.9;
name house3B_tm_B_3_646ZIPload194;
};

object triplex_line {
phases BS;
from tn_B_646;
name tl_B_4_646;
to tm_B_4_646;
length 17.67;
configuration trip_line_config;
groupid Triplex_Line;
};

object triplex_meter {
phases BS;
nominal_voltage 120;
name tm_B_4_646;
groupid Triplex_Meter;
};

object house {
schedule_skew -1102;
name house4B_tm_B_4_646;
parent tm_B_4_646;
floor_area 2645;
cooling_COP 3.2;
cooling_system_type ELECTRIC;
heating_setpoint heating5*1;
cooling_setpoint cooling3*1;
air_temperature 70;
thermal_integrity_level 5;
heating_COP 3.1;
mass_temperature 70;
heating_system_type HEAT_PUMP;
};

object ZIPload {
schedule_skew -1102;
parent house4B_tm_B_4_646;
power_fraction 0.400000;
current_fraction 0.300000;
base_power LIGHTS*1.70;
impedance_pf 1.000;
current_pf 1.000;
power_pf 1.000;
impedance_fraction 0.300000;
heatgain_fraction 0.9;
name house4B_tm_B_4_646ZIPload198;
};

object waterheater {
schedule_skew -1102;
tank_volume 50;
temperature 135;
parent house4B_tm_B_4_646;
heating_element_capacity 4.7 kW;
thermostat_deadband 3.9;
location INSIDE;
demand water20*1;
tank_setpoint 131.0;
tank_UA 2.1;
name house4B_tm_B_4_646waterheater199;
};

object triplex_line {
phases BS;
from tn_B_646;
name tl_B_5_646;
to tm_B_5_646;
length 16.59;
configuration trip_line_config;
groupid Triplex_Line;
};

object triplex_meter {
phases BS;
nominal_voltage 120;
name tm_B_5_646;
groupid Triplex_Meter;
};

object house {
schedule_skew 406;
name house5B_tm_B_5_646;
parent tm_B_5_646;
floor_area 2163;
cooling_COP 3.2;
cooling_system_type ELECTRIC;
heating_setpoint heating3*1;
cooling_setpoint cooling8*1;
air_temperature 70;
thermal_integrity_level 5;
mass_temperature 70;
heating_system_type GAS;
};

object ZIPload {
schedule_skew 406;
parent house5B_tm_B_5_646;
power_fraction 0.400000;
current_fraction 0.300000;
base_power LIGHTS*1.32;
impedance_pf 1.000;
current_pf 1.000;
power_pf 1.000;
impedance_fraction 0.300000;
heatgain_fraction 0.9;
name house5B_tm_B_5_646ZIPload203;
};

object triplex_line {
phases BS;
from tn_B_646;
name tl_B_6_646;
to tm_B_6_646;
length 12.14;
configuration trip_line_config;
groupid Triplex_Line;
};

object triplex_meter {
phases BS;
nominal_voltage 120;
name tm_B_6_646;
groupid Triplex_Meter;
};

object house {
schedule_skew -3060;
name house6B_tm_B_6_646;
parent tm_B_6_646;
floor_area 1425;
cooling_COP 3.7;
cooling_system_type ELECTRIC;
heating_setpoint heating2*1;
cooling_setpoint cooling1*1;
air_temperature 70;
thermal_integrity_level 4;
mass_temperature 70;
heating_system_type GAS;
};

object ZIPload {
schedule_skew -3060;
parent house6B_tm_B_6_646;
power_fraction 0.400000;
current_fraction 0.300000;
base_power LIGHTS*0.62;
impedance_pf 1.000;
current_pf 1.000;
power_pf 1.000;
impedance_fraction 0.300000;
heatgain_fraction 0.9;
name house6B_tm_B_6_646ZIPload207;
};

object triplex_line {
phases BS;
from tn_B_646;
name tl_B_7_646;
to tm_B_7_646;
length 16.65;
configuration trip_line_config;
groupid Triplex_Line;
};

object triplex_meter {
phases BS;
nominal_voltage 120;
name tm_B_7_646;
groupid Triplex_Meter;
};

object house {
schedule_skew -2453;
name house7B_tm_B_7_646;
parent tm_B_7_646;
floor_area 2235;
cooling_COP 3.2;
cooling_system_type ELECTRIC;
heating_setpoint heating3*1;
cooling_setpoint cooling6*1;
air_temperature 70;
thermal_integrity_level 6;
heating_COP 2.8;
mass_temperature 70;
heating_system_type HEAT_PUMP;
};

object ZIPload {
schedule_skew -2453;
parent house7B_tm_B_7_646;
power_fraction 0.400000;
current_fraction 0.300000;
base_power LIGHTS*1.34;
impedance_pf 1.000;
current_pf 1.000;
power_pf 1.000;
impedance_fraction 0.300000;
heatgain_fraction 0.9;
name house7B_tm_B_7_646ZIPload211;
};

object waterheater {
schedule_skew -2453;
tank_volume 50;
temperature 135;
parent house7B_tm_B_7_646;
heating_element_capacity 4.7 kW;
thermostat_deadband 4.7;
location INSIDE;
demand water15*1;
tank_setpoint 131.4;
tank_UA 3.3;
name house7B_tm_B_7_646waterheater212;
};

object triplex_line {
phases BS;
from tn_B_646;
name tl_B_8_646;
to tm_B_8_646;
length 16.43;
configuration trip_line_config;
groupid Triplex_Line;
};

object triplex_meter {
phases BS;
nominal_voltage 120;
name tm_B_8_646;
groupid Triplex_Meter;
};

object house {
schedule_skew -530;
name house8B_tm_B_8_646;
parent tm_B_8_646;
floor_area 2212;
cooling_COP 3.3;
cooling_system_type ELECTRIC;
heating_setpoint heating7*1;
cooling_setpoint cooling1*1;
air_temperature 70;
thermal_integrity_level 4;
heating_COP 2.6;
mass_temperature 70;
heating_system_type HEAT_PUMP;
};

object ZIPload {
schedule_skew -530;
parent house8B_tm_B_8_646;
power_fraction 0.400000;
current_fraction 0.300000;
base_power LIGHTS*1.08;
impedance_pf 1.000;
current_pf 1.000;
power_pf 1.000;
impedance_fraction 0.300000;
heatgain_fraction 0.9;
name house8B_tm_B_8_646ZIPload216;
};

object waterheater {
schedule_skew -530;
tank_volume 50;
temperature 135;
parent house8B_tm_B_8_646;
heating_element_capacity 4.7 kW;
thermostat_deadband 3.9;
location INSIDE;
demand water11*1;
tank_setpoint 133.2;
tank_UA 3.1;
name house8B_tm_B_8_646waterheater217;
};

object triplex_line {
phases BS;
from tn_B_646;
name tl_B_9_646;
to tm_B_9_646;
length 12.38;
configuration trip_line_config;
groupid Triplex_Line;
};

object triplex_meter {
phases BS;
nominal_voltage 120;
name tm_B_9_646;
groupid Triplex_Meter;
};

object house {
schedule_skew 1065;
name house9B_tm_B_9_646;
parent tm_B_9_646;
floor_area 1786;
cooling_COP 2.9;
cooling_system_type ELECTRIC;
heating_setpoint heating2*1;
cooling_setpoint cooling6*1;
air_temperature 70;
thermal_integrity_level 5;
heating_COP 2.5;
mass_temperature 70;
heating_system_type HEAT_PUMP;
};

object ZIPload {
schedule_skew 1065;
parent house9B_tm_B_9_646;
power_fraction 0.400000;
current_fraction 0.300000;
base_power LIGHTS*0.74;
impedance_pf 1.000;
current_pf 1.000;
power_pf 1.000;
impedance_fraction 0.300000;
heatgain_fraction 0.9;
name house9B_tm_B_9_646ZIPload221;
};

object waterheater {
schedule_skew 1065;
tank_volume 50;
temperature 135;
parent house9B_tm_B_9_646;
heating_element_capacity 4.4 kW;
thermostat_deadband 2.5;
location INSIDE;
demand water10*1;
tank_setpoint 131.5;
tank_UA 3.3;
name house9B_tm_B_9_646waterheater222;
};

object triplex_line {
phases BS;
from tn_B_646;
name tl_B_10_646;
to tm_B_10_646;
length 10.21;
configuration trip_line_config;
groupid Triplex_Line;
};

object triplex_meter {
phases BS;
nominal_voltage 120;
name tm_B_10_646;
groupid Triplex_Meter;
};

object house {
schedule_skew 2386;
name house10B_tm_B_10_646;
parent tm_B_10_646;
floor_area 1557;
cooling_COP 2.7;
cooling_system_type ELECTRIC;
heating_setpoint heating5*1;
cooling_setpoint cooling7*1;
air_temperature 70;
thermal_integrity_level 5;
heating_COP 2.4;
mass_temperature 70;
heating_system_type HEAT_PUMP;
};

object ZIPload {
schedule_skew 2386;
parent house10B_tm_B_10_646;
power_fraction 0.400000;
current_fraction 0.300000;
base_power LIGHTS*0.73;
impedance_pf 1.000;
current_pf 1.000;
power_pf 1.000;
impedance_fraction 0.300000;
heatgain_fraction 0.9;
name house10B_tm_B_10_646ZIPload226;
};

object waterheater {
schedule_skew 2386;
tank_volume 50;
temperature 135;
parent house10B_tm_B_10_646;
heating_element_capacity 4.1 kW;
thermostat_deadband 5.3;
location INSIDE;
demand water16*1;
tank_setpoint 135.7;
tank_UA 2.9;
name house10B_tm_B_10_646waterheater227;
};

object triplex_line {
phases BS;
from tn_B_646;
name tl_B_11_646;
to tm_B_11_646;
length 19.98;
configuration trip_line_config;
groupid Triplex_Line;
};

object triplex_meter {
phases BS;
nominal_voltage 120;
name tm_B_11_646;
groupid Triplex_Meter;
};

object house {
schedule_skew -1763;
name house11B_tm_B_11_646;
parent tm_B_11_646;
floor_area 2177;
cooling_COP 2.6;
cooling_system_type ELECTRIC;
heating_setpoint heating3*1;
cooling_setpoint cooling2*1;
air_temperature 70;
thermal_integrity_level 3;
mass_temperature 70;
heating_system_type GAS;
};

object ZIPload {
schedule_skew -1763;
parent house11B_tm_B_11_646;
power_fraction 0.400000;
current_fraction 0.300000;
base_power LIGHTS*1.20;
impedance_pf 1.000;
current_pf 1.000;
power_pf 1.000;
impedance_fraction 0.300000;
heatgain_fraction 0.9;
name house11B_tm_B_11_646ZIPload231;
};

object triplex_line {
phases BS;
from tn_B_646;
name tl_B_12_646;
to tm_B_12_646;
length 18.56;
configuration trip_line_config;
groupid Triplex_Line;
};

object triplex_meter {
phases BS;
nominal_voltage 120;
name tm_B_12_646;
groupid Triplex_Meter;
};

object house {
schedule_skew -3600;
name house12B_tm_B_12_646;
parent tm_B_12_646;
floor_area 2266;
cooling_COP 3.1;
cooling_system_type ELECTRIC;
heating_setpoint heating4*1;
cooling_setpoint cooling1*1;
air_temperature 70;
thermal_integrity_level 2;
heating_COP 3.2;
mass_temperature 70;
heating_system_type HEAT_PUMP;
};

object ZIPload {
schedule_skew -3600;
parent house12B_tm_B_12_646;
power_fraction 0.400000;
current_fraction 0.300000;
base_power LIGHTS*1.15;
impedance_pf 1.000;
current_pf 1.000;
power_pf 1.000;
impedance_fraction 0.300000;
heatgain_fraction 0.9;
name house12B_tm_B_12_646ZIPload235;
};

object waterheater {
schedule_skew -3600;
tank_volume 50;
temperature 135;
parent house12B_tm_B_12_646;
heating_element_capacity 4.9 kW;
thermostat_deadband 2.7;
location INSIDE;
demand water1*1;
tank_setpoint 130.9;
tank_UA 3.1;
name house12B_tm_B_12_646waterheater236;
};

object triplex_line {
phases BS;
from tn_B_646;
name tl_B_13_646;
to tm_B_13_646;
length 16.27;
configuration trip_line_config;
groupid Triplex_Line;
};

object triplex_meter {
phases BS;
nominal_voltage 120;
name tm_B_13_646;
groupid Triplex_Meter;
};

object house {
schedule_skew -622;
name house13B_tm_B_13_646;
parent tm_B_13_646;
floor_area 1653;
cooling_COP 3.3;
cooling_system_type ELECTRIC;
heating_setpoint heating5*1;
cooling_setpoint cooling5*1;
air_temperature 70;
thermal_integrity_level 4;
mass_temperature 70;
heating_system_type GAS;
};

object ZIPload {
schedule_skew -622;
parent house13B_tm_B_13_646;
power_fraction 0.400000;
current_fraction 0.300000;
base_power LIGHTS*1.35;
impedance_pf 1.000;
current_pf 1.000;
power_pf 1.000;
impedance_fraction 0.300000;
heatgain_fraction 0.9;
name house13B_tm_B_13_646ZIPload240;
};

object triplex_line {
phases BS;
from tn_B_646;
name tl_B_14_646;
to tm_B_14_646;
length 12.26;
configuration trip_line_config;
groupid Triplex_Line;
};

object triplex_meter {
phases BS;
nominal_voltage 120;
name tm_B_14_646;
groupid Triplex_Meter;
};

object house {
schedule_skew 1258;
name house14B_tm_B_14_646;
parent tm_B_14_646;
floor_area 2669;
cooling_COP 3.3;
cooling_system_type ELECTRIC;
heating_setpoint heating5*1;
cooling_setpoint cooling7*1;
air_temperature 70;
thermal_integrity_level 5;
mass_temperature 70;
heating_system_type GAS;
};

object ZIPload {
schedule_skew 1258;
parent house14B_tm_B_14_646;
power_fraction 0.400000;
current_fraction 0.300000;
base_power LIGHTS*1.64;
impedance_pf 1.000;
current_pf 1.000;
power_pf 1.000;
impedance_fraction 0.300000;
heatgain_fraction 0.9;
name house14B_tm_B_14_646ZIPload244;
};

object triplex_line {
phases BS;
from tn_B_646;
name tl_B_15_646;
to tm_B_15_646;
length 14.44;
configuration trip_line_config;
groupid Triplex_Line;
};

object triplex_meter {
phases BS;
nominal_voltage 120;
name tm_B_15_646;
groupid Triplex_Meter;
};

object house {
schedule_skew 346;
name house15B_tm_B_15_646;
parent tm_B_15_646;
floor_area 2049;
cooling_COP 3.9;
cooling_system_type ELECTRIC;
heating_setpoint heating2*1;
cooling_setpoint cooling2*1;
air_temperature 70;
thermal_integrity_level 5;
heating_COP 3.1;
mass_temperature 70;
heating_system_type HEAT_PUMP;
};

object ZIPload {
schedule_skew 346;
parent house15B_tm_B_15_646;
power_fraction 0.400000;
current_fraction 0.300000;
base_power LIGHTS*1.54;
impedance_pf 1.000;
current_pf 1.000;
power_pf 1.000;
impedance_fraction 0.300000;
heatgain_fraction 0.9;
name house15B_tm_B_15_646ZIPload248;
};

object waterheater {
schedule_skew 346;
tank_volume 50;
temperature 135;
parent house15B_tm_B_15_646;
heating_element_capacity 4.1 kW;
thermostat_deadband 3.8;
location INSIDE;
demand water3*1;
tank_setpoint 132.8;
tank_UA 3.8;
name house15B_tm_B_15_646waterheater249;
};

object triplex_line {
phases BS;
from tn_B_646;
name tl_B_16_646;
to tm_B_16_646;
length 16.67;
configuration trip_line_config;
groupid Triplex_Line;
};

object triplex_meter {
phases BS;
nominal_voltage 120;
name tm_B_16_646;
groupid Triplex_Meter;
};

object house {
schedule_skew -473;
name house16B_tm_B_16_646;
parent tm_B_16_646;
floor_area 1880;
cooling_COP 3.3;
cooling_system_type ELECTRIC;
heating_setpoint heating7*1;
cooling_setpoint cooling3*1;
air_temperature 70;
thermal_integrity_level 6;
mass_temperature 70;
heating_system_type GAS;
};

object ZIPload {
schedule_skew -473;
parent house16B_tm_B_16_646;
power_fraction 0.400000;
current_fraction 0.300000;
base_power LIGHTS*1.11;
impedance_pf 1.000;
current_pf 1.000;
power_pf 1.000;
impedance_fraction 0.300000;
heatgain_fraction 0.9;
name house16B_tm_B_16_646ZIPload253;
};

object triplex_line {
phases BS;
from tn_B_646;
name tl_B_17_646;
to tm_B_17_646;
length 12.07;
configuration trip_line_config;
groupid Triplex_Line;
};

object triplex_meter {
phases BS;
nominal_voltage 120;
name tm_B_17_646;
groupid Triplex_Meter;
};

object house {
schedule_skew -2708;
name house17B_tm_B_17_646;
parent tm_B_17_646;
floor_area 2348;
cooling_COP 4.0;
cooling_system_type ELECTRIC;
heating_setpoint heating5*1;
cooling_setpoint cooling1*1;
air_temperature 70;
thermal_integrity_level 4;
heating_COP 2.4;
mass_temperature 70;
heating_system_type HEAT_PUMP;
};

object ZIPload {
schedule_skew -2708;
parent house17B_tm_B_17_646;
power_fraction 0.400000;
current_fraction 0.300000;
base_power LIGHTS*0.99;
impedance_pf 1.000;
current_pf 1.000;
power_pf 1.000;
impedance_fraction 0.300000;
heatgain_fraction 0.9;
name house17B_tm_B_17_646ZIPload257;
};

object waterheater {
schedule_skew -2708;
tank_volume 50;
temperature 135;
parent house17B_tm_B_17_646;
heating_element_capacity 4.4 kW;
thermostat_deadband 5.2;
location INSIDE;
demand water2*1;
tank_setpoint 134.1;
tank_UA 3.5;
name house17B_tm_B_17_646waterheater258;
};

object triplex_line {
phases BS;
from tn_B_646;
name tl_B_18_646;
to tm_B_18_646;
length 12.29;
configuration trip_line_config;
groupid Triplex_Line;
};

object triplex_meter {
phases BS;
nominal_voltage 120;
name tm_B_18_646;
groupid Triplex_Meter;
};

object house {
schedule_skew 483;
name house18B_tm_B_18_646;
parent tm_B_18_646;
floor_area 2221;
cooling_COP 3.0;
cooling_system_type ELECTRIC;
heating_setpoint heating7*1;
cooling_setpoint cooling5*1;
air_temperature 70;
thermal_integrity_level 4;
heating_COP 2.7;
mass_temperature 70;
heating_system_type HEAT_PUMP;
};

object ZIPload {
schedule_skew 483;
parent house18B_tm_B_18_646;
power_fraction 0.400000;
current_fraction 0.300000;
base_power LIGHTS*1.47;
impedance_pf 1.000;
current_pf 1.000;
power_pf 1.000;
impedance_fraction 0.300000;
heatgain_fraction 0.9;
name house18B_tm_B_18_646ZIPload262;
};

object waterheater {
schedule_skew 483;
tank_volume 50;
temperature 135;
parent house18B_tm_B_18_646;
heating_element_capacity 4.4 kW;
thermostat_deadband 2.6;
location INSIDE;
demand water20*1;
tank_setpoint 134.7;
tank_UA 2.3;
name house18B_tm_B_18_646waterheater263;
};

object triplex_line {
phases BS;
from tn_B_646;
name tl_B_19_646;
to tm_B_19_646;
length 15.96;
configuration trip_line_config;
groupid Triplex_Line;
};

object triplex_meter {
phases BS;
nominal_voltage 120;
name tm_B_19_646;
groupid Triplex_Meter;
};

object house {
schedule_skew -1584;
name house19B_tm_B_19_646;
parent tm_B_19_646;
floor_area 1990;
cooling_COP 3.7;
cooling_system_type ELECTRIC;
heating_setpoint heating3*1;
cooling_setpoint cooling6*1;
air_temperature 70;
thermal_integrity_level 4;
mass_temperature 70;
heating_system_type GAS;
};

object ZIPload {
schedule_skew -1584;
parent house19B_tm_B_19_646;
power_fraction 0.400000;
current_fraction 0.300000;
base_power LIGHTS*1.14;
impedance_pf 1.000;
current_pf 1.000;
power_pf 1.000;
impedance_fraction 0.300000;
heatgain_fraction 0.9;
name house19B_tm_B_19_646ZIPload267;
};

object transformer {
phases AS;
from 652;
name CTTF_A_652;
to tn_A_652;
configuration CTTF_A_652transformer_configuration269;
groupid Distribution_Trans;
};

object transformer_configuration {
shunt_impedance 10000+10000j;
primary_voltage 2401.777;
install_type POLETOP;
secondary_voltage 120;
connect_type SINGLE_PHASE_CENTER_TAPPED;
impedance 0.00033+0.0022j;
powerA_rating 210 kVA;
name CTTF_A_652transformer_configuration269;
};

object triplex_meter {
phases AS;
nominal_voltage 120;
name tn_A_652;
};

object triplex_line {
phases AS;
from tn_A_652;
name tl_A_1_652;
to tm_A_1_652;
length 14.05;
configuration trip_line_config;
groupid Triplex_Line;
};

object triplex_meter {
phases AS;
nominal_voltage 120;
name tm_A_1_652;
groupid Triplex_Meter;
};

object house {
schedule_skew -2525;
name house1A_tm_A_1_652;
parent tm_A_1_652;
floor_area 1977;
cooling_COP 3.2;
cooling_system_type ELECTRIC;
heating_setpoint heating3*1;
cooling_setpoint cooling3*1;
air_temperature 70;
thermal_integrity_level 3;
mass_temperature 70;
heating_system_type GAS;
};

object ZIPload {
schedule_skew -2525;
parent house1A_tm_A_1_652;
power_fraction 0.400000;
current_fraction 0.300000;
base_power LIGHTS*1.15;
impedance_pf 1.000;
current_pf 1.000;
power_pf 1.000;
impedance_fraction 0.300000;
heatgain_fraction 0.9;
name house1A_tm_A_1_652ZIPload274;
};

object triplex_line {
phases AS;
from tn_A_652;
name tl_A_2_652;
to tm_A_2_652;
length 17.22;
configuration trip_line_config;
groupid Triplex_Line;
};

object triplex_meter {
phases AS;
nominal_voltage 120;
name tm_A_2_652;
groupid Triplex_Meter;
};

object house {
schedule_skew 933;
name house2A_tm_A_2_652;
parent tm_A_2_652;
floor_area 2027;
cooling_COP 3.1;
cooling_system_type ELECTRIC;
heating_setpoint heating1*1;
cooling_setpoint cooling5*1;
air_temperature 70;
thermal_integrity_level 4;
heating_COP 3.3;
mass_temperature 70;
heating_system_type HEAT_PUMP;
};

object ZIPload {
schedule_skew 933;
parent house2A_tm_A_2_652;
power_fraction 0.400000;
current_fraction 0.300000;
base_power LIGHTS*0.85;
impedance_pf 1.000;
current_pf 1.000;
power_pf 1.000;
impedance_fraction 0.300000;
heatgain_fraction 0.9;
name house2A_tm_A_2_652ZIPload278;
};

object waterheater {
schedule_skew 933;
tank_volume 50;
temperature 135;
parent house2A_tm_A_2_652;
heating_element_capacity 4.8 kW;
thermostat_deadband 3.9;
location INSIDE;
demand water6*1;
tank_setpoint 135.7;
tank_UA 2.9;
name house2A_tm_A_2_652waterheater279;
};

object triplex_line {
phases AS;
from tn_A_652;
name tl_A_3_652;
to tm_A_3_652;
length 14.15;
configuration trip_line_config;
groupid Triplex_Line;
};

object triplex_meter {
phases AS;
nominal_voltage 120;
name tm_A_3_652;
groupid Triplex_Meter;
};

object house {
schedule_skew -1047;
name house3A_tm_A_3_652;
parent tm_A_3_652;
floor_area 2022;
cooling_COP 2.7;
cooling_system_type ELECTRIC;
heating_setpoint heating2*1;
cooling_setpoint cooling7*1;
air_temperature 70;
thermal_integrity_level 5;
heating_COP 3.2;
mass_temperature 70;
heating_system_type HEAT_PUMP;
};

object ZIPload {
schedule_skew -1047;
parent house3A_tm_A_3_652;
power_fraction 0.400000;
current_fraction 0.300000;
base_power LIGHTS*1.10;
impedance_pf 1.000;
current_pf 1.000;
power_pf 1.000;
impedance_fraction 0.300000;
heatgain_fraction 0.9;
name house3A_tm_A_3_652ZIPload283;
};

object waterheater {
schedule_skew -1047;
tank_volume 50;
temperature 135;
parent house3A_tm_A_3_652;
heating_element_capacity 4.7 kW;
thermostat_deadband 4.9;
location INSIDE;
demand water19*1;
tank_setpoint 127.9;
tank_UA 3.0;
name house3A_tm_A_3_652waterheater284;
};

object triplex_line {
phases AS;
from tn_A_652;
name tl_A_4_652;
to tm_A_4_652;
length 11.18;
configuration trip_line_config;
groupid Triplex_Line;
};

object triplex_meter {
phases AS;
nominal_voltage 120;
name tm_A_4_652;
groupid Triplex_Meter;
};

object house {
schedule_skew -360;
name house4A_tm_A_4_652;
parent tm_A_4_652;
floor_area 1521;
cooling_COP 3.6;
cooling_system_type ELECTRIC;
heating_setpoint heating2*1;
cooling_setpoint cooling3*1;
air_temperature 70;
thermal_integrity_level 6;
heating_COP 3.1;
mass_temperature 70;
heating_system_type HEAT_PUMP;
};

object ZIPload {
schedule_skew -360;
parent house4A_tm_A_4_652;
power_fraction 0.400000;
current_fraction 0.300000;
base_power LIGHTS*0.84;
impedance_pf 1.000;
current_pf 1.000;
power_pf 1.000;
impedance_fraction 0.300000;
heatgain_fraction 0.9;
name house4A_tm_A_4_652ZIPload288;
};

object waterheater {
schedule_skew -360;
tank_volume 50;
temperature 135;
parent house4A_tm_A_4_652;
heating_element_capacity 4.5 kW;
thermostat_deadband 2.3;
location INSIDE;
demand water17*1;
tank_setpoint 130.0;
tank_UA 2.1;
name house4A_tm_A_4_652waterheater289;
};

object triplex_line {
phases AS;
from tn_A_652;
name tl_A_5_652;
to tm_A_5_652;
length 16.92;
configuration trip_line_config;
groupid Triplex_Line;
};

object triplex_meter {
phases AS;
nominal_voltage 120;
name tm_A_5_652;
groupid Triplex_Meter;
};

object house {
schedule_skew -695;
name house5A_tm_A_5_652;
parent tm_A_5_652;
floor_area 2084;
cooling_COP 3.1;
cooling_system_type ELECTRIC;
heating_setpoint heating1*1;
cooling_setpoint cooling7*1;
air_temperature 70;
thermal_integrity_level 5;
heating_COP 3.1;
mass_temperature 70;
heating_system_type HEAT_PUMP;
};

object ZIPload {
schedule_skew -695;
parent house5A_tm_A_5_652;
power_fraction 0.400000;
current_fraction 0.300000;
base_power LIGHTS*1.37;
impedance_pf 1.000;
current_pf 1.000;
power_pf 1.000;
impedance_fraction 0.300000;
heatgain_fraction 0.9;
name house5A_tm_A_5_652ZIPload293;
};

object waterheater {
schedule_skew -695;
tank_volume 50;
temperature 135;
parent house5A_tm_A_5_652;
heating_element_capacity 4.6 kW;
thermostat_deadband 2.3;
location INSIDE;
demand water4*1;
tank_setpoint 137.3;
tank_UA 4.0;
name house5A_tm_A_5_652waterheater294;
};

object triplex_line {
phases AS;
from tn_A_652;
name tl_A_6_652;
to tm_A_6_652;
length 12.70;
configuration trip_line_config;
groupid Triplex_Line;
};

object triplex_meter {
phases AS;
nominal_voltage 120;
name tm_A_6_652;
groupid Triplex_Meter;
};

object house {
schedule_skew 2;
name house6A_tm_A_6_652;
parent tm_A_6_652;
floor_area 1932;
cooling_COP 3.7;
cooling_system_type ELECTRIC;
heating_setpoint heating3*1;
cooling_setpoint cooling6*1;
air_temperature 70;
thermal_integrity_level 5;
mass_temperature 70;
...